28
Lattice="8.35800215362499 0.0 0.0 4.179001076812495 7.238242189924291 0.0 0.0 0.0 28.549520121214247" Properties=species:S:1:pos:R:3:tags:I:1 pbc="T T T"
Pt       1.39300040       0.80424915      11.94832014        3
Pt       4.17900108       0.80424917      11.94832014        3
Pt       6.96500176       0.80424915      11.94832014        3
Pt       2.78600075       3.21699651      11.94832014        3
Pt       5.57200140       3.21699651      11.94832014        3
Pt       8.35800215       3.21699646      11.94832009        3
Pt       4.17900108       5.62974388      11.94832014        3
Pt       6.96500173       5.62974396      11.94832009        3
Pt       9.75100258       5.62974396      11.94832009        3
Pt      -0.00000000       1.60849829      14.27477807        2
Pt       2.78600075       1.60849828      14.27477797        2
Pt       5.57200141       1.60849828      14.27477797        2
Pt       1.39300036       4.02124566      14.27477813        2
Pt       4.17900108       4.02124563      14.27477797        2
Pt       6.96500180       4.02124566      14.27477813        2
Pt       2.78600069       6.43399304      14.27477807        2
Pt       5.57200146       6.43399304      14.27477807        2
Pt       8.35800215       6.43399306      14.27477813        2
Pt      -0.00000000      -0.00000000      16.60119924        1
Pt       2.78600066      -0.00000003      16.60119898        1
Pt       5.57200149      -0.00000003      16.60119898        1
Pt       1.39300030       2.41274736      16.60119898        1
Pt       4.17900108       2.41274740      16.60119943        1
Pt       6.96500185       2.41274736      16.60119898        1
Pt       2.78600072       4.82549486      16.60119898        1
Pt       5.57200144       4.82549486      16.60119898        1
Pt       8.35800215       4.82549479      16.60119922        1
O        5.00000000       3.00000000      10.00000000        0
