29
Lattice="8.845905832643709 0.0 0.0 4.422952916321854 7.660779170554388 0.0 0.0 0.0 28.81510124504148" Properties=species:S:1:pos:R:3:tags:I:1 pbc="T T T"
Au       1.47431764       0.85119769      12.00000000        3
Au       4.42295292       0.85119769      12.00000000        3
Au       7.37158819       0.85119769      12.00000000        3
Au       2.94863528       3.40479074      12.00000000        3
Au       5.89727056       3.40479074      12.00000000        3
Au       8.84590583       3.40479074      12.00000000        3
Au       4.42295292       5.95838380      12.00000000        3
Au       7.37158819       5.95838380      12.00000000        3
Au      10.32022347       5.95838380      12.00000000        3
Au       0.00000000       1.70239537      14.40755062        2
Au       2.94863528       1.70239537      14.40755062        2
Au       5.89727056       1.70239537      14.40755062        2
Au       1.47431764       4.25598843      14.40755062        2
Au       4.42295292       4.25598843      14.40755062        2
Au       7.37158819       4.25598843      14.40755062        2
Au       2.94863528       6.80958148      14.40755062        2
Au       5.89727056       6.80958148      14.40755062        2
Au       8.84590583       6.80958148      14.40755062        2
Au       0.00000000       0.00000000      16.81510125        1
Au       2.94863528       0.00000000      16.81510125        1
Au       5.89727056       0.00000000      16.81510125        1
Au       1.47431764       2.55359306      16.81510125        1
Au       4.42295292       2.55359306      16.81510125        1
Au       7.37158819       2.55359306      16.81510125        1
Au       2.94863528       5.10718611      16.81510125        1
Au       5.89727056       5.10718611      16.81510125        1
Au       8.84590583       5.10718611      16.81510125        1
O        6.00000000       4.00000000       9.57517000        0
C        6.00000000       4.00000000       8.42483000        0
